10

C          1.06198       -0.07675       -0.06144
C          2.39959       -0.13837       -0.02492
C          3.18266       -1.35925        0.32686
O          3.99911       -1.69951       -0.78136
H          0.55767        0.84943       -0.32039
H          0.44141       -0.93789        0.16636
H          2.97849        0.75260       -0.25544
H          2.54389       -2.21466        0.56709
H          3.82924       -1.15977        1.18635
H          3.40282       -1.80869       -1.54170
