9

O          0.94688        0.05245       -0.08191
C          2.36654        0.04382       -0.07083
C          2.87429        0.92023       -1.19579
H          0.65235       -0.51707        0.64912
H          2.71363       -0.98574       -0.19971
H          2.71363        0.42060        0.89593
H          2.50840        0.55825       -2.16233
H          3.96758        0.93562       -1.21555
H          2.50841        1.94595       -1.08122
